LTspice 24.1.9 for Windows
Circuit: C:\Users\kiarash\Desktop\Semester Projects\SP3\SPO3\Draft2.net
Start Time: Tue Dec  2 20:00:16 2025
solver = Normal
Maximum thread count: 8
tnom = 27
temp = 27
method = trap
Direct Newton iteration for .op point succeeded.
Total elapsed time: 0.073 seconds.

Files loaded:
C:\Users\kiarash\Desktop\Semester Projects\SP3\SPO3\Draft2.net
C:\Users\kiarash\AppData\Local\LTspice\lib\sub\UniversalOpAmp1.lib

